Unnamed Molecule
##   SCINE08292213503D

 14 15  0  0  0  0  0  0  0  0999 V2000
   -1.4558   -0.7488    0.0580   C 0  0  0  0  0  4  0  0  0  0  0  0
   -2.0269    0.5163    0.6428   C 0  0  0  0  0  2  0  0  0  0  0  0
   -1.1026    1.1471    1.2172   O 0  0  0  0  0  2  0  0  0  0  0  0
   -1.8655   -1.5888    0.6306   H 0  0  0  0  0  1  0  0  0  0  0  0
   -1.7391   -0.8842   -0.9865   H 0  0  0  0  0  1  0  0  0  0  0  0
   -0.0057   -0.6682    0.2493   N 0  0  0  0  0  3  0  0  0  0  0  0
    0.8164   -0.4246   -0.9286   C 0  0  0  0  0  4  0  0  0  0  0  0
    1.5071    0.8632   -0.5829   C 0  0  0  0  0  3  0  0  0  0  0  0
    1.1919    1.3279    0.5482   N 0  0  0  0  0  2  0  0  0  0  0  0
    0.2156    0.4685    1.1254   C 0  0  0  0  0  4  0  0  0  0  0  0
    1.5395   -1.2382   -1.0506   H 0  0  0  0  0  1  0  0  0  0  0  0
    0.2386   -0.3321   -1.8550   H 0  0  0  0  0  1  0  0  0  0  0  0
    2.2136    1.3595   -1.2242   H 0  0  0  0  0  1  0  0  0  0  0  0
    0.4728    0.2024    2.1562   H 0  0  0  0  0  1  0  0  0  0  0  0
  1  2  1  0  0  0  0
  1  4  1  0  0  0  0
  1  5  1  0  0  0  0
  1  6  1  0  0  0  0
  2  3  1  0  0  0  0
  3 10  1  0  0  0  0
  6  7  1  0  0  0  0
  6 10  1  0  0  0  0
  7  8  1  0  0  0  0
  7 11  1  0  0  0  0
  7 12  1  0  0  0  0
  8  9  1  0  0  0  0
  8 13  1  0  0  0  0
  9 10  1  0  0  0  0
 10 14  1  0  0  0  0
M  END