Unnamed Molecule
##   SCINE04052217203D

 25 26  0  0  0  0  0  0  0  0999 V2000
    1.1903   -1.1127    1.0346  Re 0  0  0  0  0  6  0  0  0  0  0  0
    0.4645   -2.2465    2.5211   C 0  0  0  0  0  2  0  0  0  0  0  0
    2.5641   -0.2668    2.1348   C 0  0  0  0  0  2  0  0  0  0  0  0
    2.4934   -2.3921    0.3688   C 0  0  0  0  0  2  0  0  0  0  0  0
   -0.6536    0.4150    2.0001  Br 0  0  0  0  0  1  0  0  0  0  0  0
    3.2518   -3.1590   -0.0083   O 0  0  0  0  0  1  0  0  0  0  0  0
   -0.1024   -2.7894    3.3362   O 0  0  0  0  0  1  0  0  0  0  0  0
    3.3452    0.3062    2.7400   O 0  0  0  0  0  1  0  0  0  0  0  0
    0.9695    1.1280   -1.1337   C 0  0  0  0  0  3  0  0  0  0  0  0
    1.7577    0.7152   -0.1518   C 0  0  0  0  0  3  0  0  0  0  0  0
   -0.1239    0.1847   -1.5410   C 0  0  0  0  0  4  0  0  0  0  0  0
   -1.4979    0.5862   -1.0085   C 0  0  0  0  0  3  0  0  0  0  0  0
   -2.3451   -0.2399   -0.7149   O 0  0  0  0  0  1  0  0  0  0  0  0
   -1.6750    1.8825   -0.9808   O 0  0  0  0  0  2  0  0  0  0  0  0
    0.3531   -1.1591   -0.9775   C 0  0  0  0  0  4  0  0  0  0  0  0
   -0.4962   -1.9678   -0.3108   O 0  0  0  0  0  2  0  0  0  0  0  0
   -1.3855   -1.4961   -0.2299   H 0  0  0  0  0  1  0  0  0  0  0  0
   -2.9003    2.3497   -0.4234   C 0  0  0  0  0  4  0  0  0  0  0  0
   -2.9138    3.4236   -0.5844   H 0  0  0  0  0  1  0  0  0  0  0  0
   -3.7485    1.8697   -0.9142   H 0  0  0  0  0  1  0  0  0  0  0  0
   -2.9191    2.1182    0.6438   H 0  0  0  0  0  1  0  0  0  0  0  0
    2.5671    1.3698    0.1598   H 0  0  0  0  0  1  0  0  0  0  0  0
   -0.2250    0.1164   -2.6328   H 0  0  0  0  0  1  0  0  0  0  0  0
    1.0696    2.0861   -1.6249   H 0  0  0  0  0  1  0  0  0  0  0  0
    0.9599   -1.7218   -1.7022   H 0  0  0  0  0  1  0  0  0  0  0  0
  1  2  1  0  0  0  0
  1  3  1  0  0  0  0
  1  4  1  0  0  0  0
  1  5  1  0  0  0  0
  1 10  1  0  0  0  0
  1 15  1  0  0  0  0
  2  7  2  0  0  0  0
  3  8  2  0  0  0  0
  4  6  2  0  0  0  0
  9 10  2  0  0  0  0
  9 11  1  0  0  0  0
  9 24  1  0  0  0  0
 10 22  1  0  0  0  0
 11 12  1  0  0  0  0
 11 15  1  0  0  0  0
 11 23  1  0  0  0  0
 12 13  2  0  0  0  0
 12 14  1  0  0  0  0
 14 18  1  0  0  0  0
 15 16  1  0  0  0  0
 15 25  1  0  0  0  0
 16 17  1  0  0  0  0
 18 19  1  0  0  0  0
 18 20  1  0  0  0  0
 18 21  1  0  0  0  0
  1 16  1  0  0  0  0
M  END
